*SPEF "1481-1998"
*DESIGN "sar_dbe_ADC_RESOLUTION10"
*DATE "Tue May 14 14:20:26 2024"
*VENDOR "Synopsys, Inc."
*PROGRAM "icc2 /eda/synopsys/icc2/V-2023.12/linux64/nwtn/bin/icc2_exec"
*VERSION "V-2023.12 Nov 23, 2023"
*DESIGN_FLOW "ICC2 SPEF DR"
*DIVIDER /
*DELIMITER :
*BUS_DELIMITER [ ]
*T_UNIT 1 NS
*C_UNIT 1 FF
*R_UNIT 1 OHM
*L_UNIT 1 HENRY

// XY_UNIT 1 UM
// PARASITIC_TECH maxTLU at -40.000 degree

*NAME_MAP
*1 intf_i_clk
*2 intf_i_start
*3 intf_i_comp
*4 intf_o_eoc
*5 intf_o_a2d[9]
*6 intf_o_a2d[8]
*7 intf_o_a2d[7]
*8 intf_o_a2d[6]
*9 intf_o_a2d[5]
*10 intf_o_a2d[4]
*11 intf_o_a2d[3]
*12 intf_o_a2d[2]
*13 intf_o_a2d[1]
*14 intf_o_a2d[0]
*15 VDD
*16 VSS
*17 u_SET_PROP_q_reg_10_
*18 U_ctrl_logic_sar_reg_out_reg_0_
*19 U_ctrl_logic_sar_reg_out_reg_1_
*20 U_ctrl_logic_sar_reg_out_reg_2_
*21 U_ctrl_logic_sar_reg_out_reg_3_
*22 U_ctrl_logic_sar_reg_out_reg_4_
*23 U_ctrl_logic_sar_reg_out_reg_5_
*24 U_ctrl_logic_sar_reg_out_reg_6_
*25 U_ctrl_logic_sar_reg_out_reg_7_
*26 U_ctrl_logic_sar_reg_out_reg_8_
*27 U_ctrl_logic_sar_reg_out_reg_9_
*28 U_ctrl_logic_sar_reg_out_reg_10_
*29 U2
*30 U5
*31 U7
*32 U9
*33 U11
*34 U13
*35 U15
*36 U17
*37 U19
*38 U21
*39 U24
*40 u_SET_PROP_q_reg_8_
*41 u_SET_PROP_q_reg_9_
*42 u_SET_PROP_q_reg_7_
*43 u_SET_PROP_q_reg_6_
*44 u_SET_PROP_q_reg_5_
*45 u_SET_PROP_q_reg_4_
*46 u_SET_PROP_q_reg_3_
*47 u_SET_PROP_q_reg_2_
*48 u_SET_PROP_q_reg_1_
*49 u_SET_PROP_q_reg_0_
*50 U26
*51 xofiller!SHFILL2_LVT!x243600y10000
*52 xofiller!SHFILL2_LVT!x250000y10000
*53 xofiller!SHFILL2_LVT!x256400y10000
*54 xofiller!SHFILL2_LVT!x262800y10000
*55 xofiller!SHFILL2_LVT!x269200y10000
*56 xofiller!SHFILL2_LVT!x275600y10000
*57 xofiller!SHFILL2_LVT!x282000y10000
*58 xofiller!SHFILL2_LVT!x288400y10000
*59 xofiller!SHFILL2_LVT!x294800y10000
*60 xofiller!SHFILL2_LVT!x301200y10000
*61 xofiller!SHFILL2_LVT!x307600y10000
*62 xofiller!SHFILL2_LVT!x314000y10000
*63 xofiller!SHFILL2_LVT!x320400y10000
*64 xofiller!SHFILL2_LVT!x326800y10000
*65 xofiller!SHFILL2_LVT!x333200y10000
*66 xofiller!SHFILL2_LVT!x339600y10000
*67 xofiller!SHFILL1_LVT!x346000y10000
*68 xofiller!SHFILL2_LVT!x10000y38800
*69 xofiller!SHFILL2_LVT!x10000y67600
*70 xofiller!SHFILL1_LVT!x16400y67600
*71 xofiller!SHFILL2_LVT!x38800y67600
*72 xofiller!SHFILL2_LVT!x45200y67600
*73 xofiller!SHFILL2_LVT!x51600y67600
*74 xofiller!SHFILL2_LVT!x58000y67600
*75 xofiller!SHFILL2_LVT!x83600y67600
*76 xofiller!SHFILL2_LVT!x90000y67600
*77 xofiller!SHFILL2_LVT!x96400y67600
*78 xofiller!SHFILL2_LVT!x102800y67600
*79 xofiller!SHFILL1_LVT!x109200y67600
*80 xofiller!SHFILL1_LVT!x346000y67600
*81 xofiller!SHFILL2_LVT!x131600y96400
*82 xofiller!SHFILL2_LVT!x138000y96400
*83 xofiller!SHFILL2_LVT!x144400y96400
*84 xofiller!SHFILL2_LVT!x150800y96400
*85 xofiller!SHFILL2_LVT!x157200y96400
*86 xofiller!SHFILL2_LVT!x163600y96400
*87 xofiller!SHFILL2_LVT!x170000y96400
*88 xofiller!SHFILL2_LVT!x195600y96400
*89 xofiller!SHFILL2_LVT!x202000y96400
*90 xofiller!SHFILL2_LVT!x208400y96400
*91 xofiller!SHFILL2_LVT!x214800y96400
*92 xofiller!SHFILL1_LVT!x221200y96400
*93 xofiller!SHFILL1_LVT!x346000y96400
*94 xofiller!SHFILL2_LVT!x10000y125200
*95 xofiller!SHFILL2_LVT!x16400y125200
*96 xofiller!SHFILL2_LVT!x22800y125200
*97 xofiller!SHFILL2_LVT!x29200y125200
*98 xofiller!SHFILL2_LVT!x35600y125200
*99 xofiller!SHFILL2_LVT!x42000y125200
*100 xofiller!SHFILL2_LVT!x67600y125200
*101 xofiller!SHFILL2_LVT!x74000y125200
*102 xofiller!SHFILL2_LVT!x80400y125200
*103 xofiller!SHFILL2_LVT!x86800y125200
*104 xofiller!SHFILL2_LVT!x93200y125200
*105 xofiller!SHFILL2_LVT!x99600y125200
*106 xofiller!SHFILL2_LVT!x106000y125200
*107 xofiller!SHFILL2_LVT!x112400y125200
*108 xofiller!SHFILL2_LVT!x118800y125200
*109 xofiller!SHFILL2_LVT!x243600y154000
*110 xofiller!SHFILL2_LVT!x250000y154000
*111 xofiller!SHFILL2_LVT!x256400y154000
*112 xofiller!SHFILL2_LVT!x262800y154000
*113 xofiller!SHFILL2_LVT!x269200y154000
*114 xofiller!SHFILL2_LVT!x275600y154000
*115 xofiller!SHFILL2_LVT!x282000y154000
*116 xofiller!SHFILL2_LVT!x288400y154000
*117 xofiller!SHFILL2_LVT!x294800y154000
*118 xofiller!SHFILL2_LVT!x301200y154000
*119 xofiller!SHFILL2_LVT!x307600y154000
*120 xofiller!SHFILL1_LVT!x314000y154000
*121 xofiller!SHFILL2_LVT!x336400y154000
*122 xofiller!SHFILL2_LVT!x342800y154000
*123 xofiller!SHFILL2_LVT!x131600y182800
*124 xofiller!SHFILL2_LVT!x138000y182800
*125 xofiller!SHFILL2_LVT!x144400y182800
*126 xofiller!SHFILL2_LVT!x150800y182800
*127 xofiller!SHFILL2_LVT!x157200y182800
*128 xofiller!SHFILL2_LVT!x163600y182800
*129 xofiller!SHFILL2_LVT!x170000y182800
*130 xofiller!SHFILL2_LVT!x176400y182800
*131 xofiller!SHFILL2_LVT!x182800y182800
*132 xofiller!SHFILL2_LVT!x208400y182800
*133 xofiller!SHFILL2_LVT!x214800y182800
*134 xofiller!SHFILL2_LVT!x221200y182800
*135 xofiller!SHFILL2_LVT!x227600y182800
*136 xofiller!SHFILL1_LVT!x346000y182800
*137 xofiller!SHFILL2_LVT!x10000y211600
*138 xofiller!SHFILL2_LVT!x16400y211600
*139 xofiller!SHFILL2_LVT!x22800y211600
*140 xofiller!SHFILL2_LVT!x29200y211600
*141 xofiller!SHFILL2_LVT!x35600y211600
*142 xofiller!SHFILL2_LVT!x42000y211600
*143 xofiller!SHFILL2_LVT!x67600y211600
*144 xofiller!SHFILL2_LVT!x74000y211600
*145 xofiller!SHFILL2_LVT!x80400y211600
*146 xofiller!SHFILL2_LVT!x86800y211600
*147 xofiller!SHFILL2_LVT!x93200y211600
*148 xofiller!SHFILL2_LVT!x99600y211600
*149 xofiller!SHFILL2_LVT!x106000y211600
*150 xofiller!SHFILL1_LVT!x112400y211600
*151 xofiller!SHFILL2_LVT!x227600y211600
*152 xofiller!SHFILL1_LVT!x234000y211600
*153 xofiller!SHFILL2_LVT!x131600y240400
*154 xofiller!SHFILL2_LVT!x138000y240400
*155 xofiller!SHFILL2_LVT!x144400y240400
*156 xofiller!SHFILL2_LVT!x150800y240400
*157 xofiller!SHFILL2_LVT!x157200y240400
*158 xofiller!SHFILL2_LVT!x163600y240400
*159 xofiller!SHFILL2_LVT!x170000y240400
*160 xofiller!SHFILL2_LVT!x176400y240400
*161 xofiller!SHFILL2_LVT!x182800y240400
*162 xofiller!SHFILL2_LVT!x189200y240400
*163 xofiller!SHFILL2_LVT!x195600y240400
*164 xofiller!SHFILL2_LVT!x202000y240400
*165 xofiller!SHFILL2_LVT!x208400y240400
*166 xofiller!SHFILL2_LVT!x214800y240400
*167 xofiller!SHFILL1_LVT!x221200y240400
*168 xofiller!SHFILL1_LVT!x346000y240400
*169 xofiller!SHFILL2_LVT!x10000y269200
*170 xofiller!SHFILL2_LVT!x16400y269200
*171 xofiller!SHFILL2_LVT!x22800y269200
*172 xofiller!SHFILL2_LVT!x29200y269200
*173 xofiller!SHFILL2_LVT!x35600y269200
*174 xofiller!SHFILL2_LVT!x42000y269200
*175 xofiller!SHFILL2_LVT!x86800y269200
*176 xofiller!SHFILL2_LVT!x93200y269200
*177 xofiller!SHFILL2_LVT!x99600y269200
*178 xofiller!SHFILL2_LVT!x106000y269200
*179 xofiller!SHFILL2_LVT!x112400y269200
*180 xofiller!SHFILL2_LVT!x240400y269200
*181 xofiller!SHFILL2_LVT!x246800y269200
*182 xofiller!SHFILL2_LVT!x253200y269200
*183 xofiller!SHFILL2_LVT!x259600y269200
*184 xofiller!SHFILL1_LVT!x266000y269200
*185 xofiller!SHFILL2_LVT!x288400y269200
*186 xofiller!SHFILL2_LVT!x294800y269200
*187 xofiller!SHFILL2_LVT!x301200y269200
*188 xofiller!SHFILL2_LVT!x307600y269200
*189 xofiller!SHFILL1_LVT!x314000y269200
*190 xofiller!SHFILL2_LVT!x336400y269200
*191 xofiller!SHFILL2_LVT!x342800y269200
*192 xofiller!SHFILL2_LVT!x131600y298000
*193 xofiller!SHFILL2_LVT!x138000y298000
*194 xofiller!SHFILL2_LVT!x144400y298000
*195 xofiller!SHFILL2_LVT!x150800y298000
*196 xofiller!SHFILL2_LVT!x157200y298000
*197 xofiller!SHFILL2_LVT!x163600y298000
*198 xofiller!SHFILL2_LVT!x189200y298000
*199 xofiller!SHFILL2_LVT!x195600y298000
*200 xofiller!SHFILL2_LVT!x202000y298000
*201 xofiller!SHFILL2_LVT!x208400y298000
*202 xofiller!SHFILL2_LVT!x214800y298000
*203 xofiller!SHFILL1_LVT!x221200y298000
*204 xofiller!SHFILL1_LVT!x346000y298000
*205 U_ctrl_logic_sar_reg_out_0_
*206 u_SET_PROP_n11
*207 u_SET_PROP_n10
*208 u_SET_PROP_n9
*209 u_SET_PROP_n8
*210 u_SET_PROP_n7
*211 u_SET_PROP_n6
*212 u_SET_PROP_n5
*213 u_SET_PROP_n4
*214 u_SET_PROP_n3
*215 u_SET_PROP_n2
*216 n1
*217 n3
*218 n4
*219 n6
*220 n8
*221 n10
*222 n12
*223 n14
*224 n16
*225 n18
*226 n20
*227 n22
*228 n25
*229 n26
*230 n27
*231 n28
*232 n29
*233 n31
*234 n32
*235 n33
*236 n34
*237 n35

*PORTS

*1 I *C 30.440 0.220
*2 I *C 22.120 0.220
*3 I *C 14.120 0.220
*4 O *C 5.800 0.220
*5 O *C 35.700 22.120
*6 O *C 35.700 13.160
*7 O *C 35.700 4.200
*8 O *C 30.440 33.460
*9 O *C 22.120 33.460
*10 O *C 14.120 33.460
*11 O *C 5.800 33.460
*12 O *C 0.220 22.120
*13 O *C 0.220 13.160
*14 O *C 0.220 4.200
*15 I *C 17.960 16.840
*16 I *C 17.960 16.840

*D_NET *1 14.45904 //LENGTH 95.840 LUMPCC 0 DR

*CONN
*P *1 I *L 0 *C 30.440 0.360
*I *49:CLK I *L 1.175324 *C 25.070 5.480
*I *41:CLK I *L 1.175324 *C 25.070 13.800
*I *40:CLK I *L 1.175324 *C 24.750 19.560
*I *42:CLK I *L 1.175324 *C 25.070 22.760
*I *47:CLK I *L 1.175324 *C 14.510 2.280
*I *17:CLK I *L 1.251208 *C 14.760 5.480
*I *46:CLK I *L 1.175324 *C 12.590 8.040
*I *43:CLK I *L 1.175324 *C 12.910 22.760
*I *44:CLK I *L 1.175324 *C 14.510 17.000
*I *45:CLK I *L 1.175324 *C 13.870 13.800
*I *48:CLK I *L 1.175324 *C 2.990 5.480
*N *1:12 *C 2.920 5.480
*N *1:13 *C 2.920 5.460
*N *1:14 *C 2.920 1.640
*N *1:15 *C 2.280 1.640
*N *1:16 *C 2.280 0.700
*N *1:17 *C 2.305 0.680
*N *1:18 *C 13.800 13.800
*N *1:19 *C 13.800 13.800
*N *1:20 *C 14.440 17.000
*N *1:21 *C 14.440 17.000
*N *1:22 *C 13.800 17.000
*N *1:23 *C 13.800 16.680
*N *1:24 *C 12.840 22.760
*N *1:25 *C 12.840 22.760
*N *1:26 *C 11.880 22.760
*N *1:27 *C 11.880 16.680
*N *1:28 *C 12.520 16.680
*N *1:29 *C 12.520 13.800
*N *1:30 *C 12.840 13.800
*N *1:31 *C 12.840 11.240
*N *1:32 *C 12.520 11.240
*N *1:33 *C 12.520 8.040
*N *1:34 *C 12.520 8.040
*N *1:35 *C 12.520 6.120
*N *1:36 *C 14.760 6.120
*N *1:37 *C 14.760 5.480
*N *1:38 *C 14.760 0.680
*N *1:39 *C 14.440 2.280
*N *1:40 *C 14.440 2.260
*N *1:41 *C 14.440 0.680
*N *1:42 *C 14.440 0.680
*N *1:43 *C 25.000 22.760
*N *1:44 *C 25.000 22.740
*N *1:45 *C 24.680 19.560
*N *1:46 *C 24.680 19.540
*N *1:47 *C 24.680 17.960
*N *1:48 *C 25.000 17.960
*N *1:49 *C 25.000 13.800
*N *1:50 *C 25.000 13.800
*N *1:51 *C 25.000 5.480
*N *1:52 *C 25.000 5.480
*N *1:53 *C 25.000 0.700
*N *1:54 *C 25.000 0.680
*N *1:55 *C 30.415 0.680
*N *1:56 *C 30.440 0.660

*CAP
0 *1 0.03033218
1 *49:CLK 0.02274761
2 *41:CLK 0.02268986
3 *40:CLK 0.02688721
4 *42:CLK 0.02226724
5 *47:CLK 0.02876597
6 *17:CLK 0.001
7 *46:CLK 0.02054807
8 *43:CLK 0.01959182
9 *44:CLK 0.02774736
10 *45:CLK 0.02988734
11 *48:CLK 0.02090689
12 *1:12 0.02090689
13 *1:13 0.2650124
14 *1:14 0.3090181
15 *1:15 0.1227899
16 *1:16 0.07878426
17 *1:17 0.9315094
18 *1:18 0.02988734
19 *1:19 0.05970919
20 *1:20 0.02774736
21 *1:21 0.04878067
22 *1:22 0.08227673
23 *1:23 0.1122014
24 *1:24 0.01959182
25 *1:25 0.05983131
26 *1:26 0.485976
27 *1:27 0.4652531
28 *1:28 0.2927111
29 *1:29 0.1965521
30 *1:30 0.2810411
31 *1:31 0.2256926
32 *1:32 0.3023815
33 *1:33 0.02054807
34 *1:34 0.4059182
35 *1:35 0.2608221
36 *1:36 0.1941095
37 *1:37 0.5380576
38 *1:38 0.5044865
39 *1:39 0.02876597
40 *1:40 0.1929086
41 *1:41 0.2221769
42 *1:42 1.737349
43 *1:43 0.02226724
44 *1:44 0.4111688
45 *1:45 0.02688721
46 *1:46 0.1811426
47 *1:47 0.216808
48 *1:48 0.7447273
49 *1:49 0.02268986
50 *1:50 1.01349
51 *1:51 0.02274761
52 *1:52 1.022223
53 *1:53 0.3066259
54 *1:54 1.223804
55 *1:55 0.4179641
56 *1:56 0.03033218

*RES
0 *1 *1:56 0.16875
1 *1:55 *1:54 3.481071
2 *1:56 *1:55 0.9
3 *1:43 *42:CLK 0.0675
4 *1:44 *1:43 0.9
5 *1:49 *41:CLK 0.0675
6 *1:50 *1:49 0.9
7 *1:50 *1:48 2.34
8 *1:51 *49:CLK 0.06750002
9 *1:52 *1:51 0.9
10 *1:52 *1:50 4.68
11 *1:54 *1:53 0.9
12 *1:54 *1:42 6.788571
13 *1:53 *1:52 2.68875
14 *1:45 *40:CLK 0.0675
15 *1:46 *1:45 0.9
16 *1:37 *17:CLK 0.9
17 *1:37 *1:36 0.36
18 *1:39 *47:CLK 0.0675
19 *1:40 *1:39 0.9
20 *1:42 *1:41 0.9
21 *1:42 *1:17 7.801071
22 *1:41 *1:40 0.88875
23 *1:41 *1:38 0.18
24 *1:18 *45:CLK 0.0675
25 *1:19 *1:18 0.9
26 *1:20 *44:CLK 0.0675
27 *1:21 *1:20 0.9
28 *1:33 *46:CLK 0.06750001
29 *1:34 *1:33 0.9
30 *1:34 *1:32 1.8
31 *1:24 *43:CLK 0.0675
32 *1:25 *1:24 0.9
33 *1:17 *1:16 0.9
34 *1:16 *1:15 0.5287499
35 *1:12 *48:CLK 0.0675
36 *1:13 *1:12 0.9
37 *1:15 *1:14 0.36
38 *1:14 *1:13 2.14875
39 *1:27 *1:26 3.42
40 *1:26 *1:25 0.54
41 *1:28 *1:27 0.36
42 *1:28 *1:23 0.72
43 *1:23 *1:22 0.18
44 *1:35 *1:34 1.08
45 *1:36 *1:35 1.26
46 *1:32 *1:31 0.18
47 *1:31 *1:30 1.44
48 *1:29 *1:28 1.62
49 *1:30 *1:29 0.18
50 *1:30 *1:19 0.54
51 *1:22 *1:21 0.36
52 *1:38 *1:37 2.7
53 *1:47 *1:46 0.88875
54 *1:48 *1:47 0.18
55 *1:48 *1:44 2.68875

*END

*D_NET *2 17.36663 //LENGTH 139.645 LUMPCC 0 DR

*CONN
*P *2 I *L 0 *C 22.120 0.360
*I *47:RSTB I *L 3.400024 *C 21.800 3.560
*I *17:SETB I *L 1.976246 *C 19.880 4.520
*I *48:RSTB I *L 3.400024 *C 10.280 4.200
*I *20:SETB I *L 2.684768 *C 8.040 17.960
*I *21:SETB I *L 2.684768 *C 8.040 18.600
*I *23:SETB I *L 2.684768 *C 8.040 30.120
*I *22:SETB I *L 2.684768 *C 8.040 24.360
*I *19:SETB I *L 2.684768 *C 8.040 12.200
*I *18:RSTB I *L 3.832861 *C 7.080 3.560
*I *46:RSTB I *L 3.400024 *C 19.880 9.320
*I *27:SETB I *L 2.684768 *C 29.480 7.080
*I *49:RSTB I *L 3.400024 *C 32.360 4.200
*I *41:RSTB I *L 3.400024 *C 31.400 15.080
*I *40:RSTB I *L 3.400024 *C 31.400 20.258
*I *42:RSTB I *L 3.400024 *C 31.400 21.480
*I *25:SETB I *L 2.684768 *C 29.480 30.120
*I *26:SETB I *L 2.684768 *C 29.480 24.360
*I *28:SETB I *L 2.684768 *C 29.480 12.200
*I *45:RSTB I *L 3.400024 *C 21.160 15.080
*I *44:RSTB I *L 3.400024 *C 21.800 15.720
*I *43:RSTB I *L 3.400024 *C 19.560 22.062
*I *24:SETB I *L 2.684768 *C 18.920 29.425
*N *2:23 *C 18.920 29.425
*N *2:24 *C 18.920 24.680
*N *2:25 *C 19.560 24.680
*N *2:26 *C 19.560 22.120
*N *2:27 *C 19.560 22.120
*N *2:28 *C 19.560 15.080
*N *2:29 *C 19.880 15.080
*N *2:30 *C 21.800 15.720
*N *2:31 *C 21.480 15.720
*N *2:32 *C 21.480 15.080
*N *2:33 *C 21.160 15.080
*N *2:34 *C 21.140 15.080
*N *2:35 *C 19.900 15.080
*N *2:36 *C 19.880 15.060
*N *2:37 *C 29.480 12.180
*N *2:38 *C 29.480 24.340
*N *2:39 *C 29.480 24.040
*N *2:40 *C 29.480 30.100
*N *2:41 *C 29.480 25.960
*N *2:42 *C 29.160 25.960
*N *2:43 *C 29.160 24.040
*N *2:44 *C 29.160 22.780
*N *2:45 *C 29.180 22.760
*N *2:46 *C 31.380 22.760
*N *2:47 *C 31.400 22.740
*N *2:48 *C 31.400 21.480
*N *2:49 *C 31.400 20.200
*N *2:50 *C 31.400 20.200
*N *2:51 *C 31.400 15.080
*N *2:52 *C 32.360 3.960
*N *2:53 *C 32.360 4.180
*N *2:54 *C 32.340 4.200
*N *2:55 *C 31.420 4.200
*N *2:56 *C 31.400 4.220
*N *2:57 *C 31.400 11.880
*N *2:58 *C 31.380 11.880
*N *2:59 *C 29.500 11.880
*N *2:60 *C 29.480 11.880
*N *2:61 *C 29.480 7.100
*N *2:62 *C 29.480 7.400
*N *2:63 *C 29.460 7.400
*N *2:64 *C 24.700 7.400
*N *2:65 *C 24.680 7.420
*N *2:66 *C 24.680 9.300
*N *2:67 *C 24.660 9.320
*N *2:68 *C 19.900 9.320
*N *2:69 *C 19.880 9.320
*N *2:70 *C 7.080 3.540
*N *2:71 *C 8.040 12.200
*N *2:72 *C 8.040 24.360
*N *2:73 *C 8.040 30.100
*N *2:74 *C 8.040 29.160
*N *2:75 *C 7.400 29.160
*N *2:76 *C 7.400 24.360
*N *2:77 *C 8.040 18.580
*N *2:78 *C 8.040 17.980
*N *2:79 *C 8.040 18.280
*N *2:80 *C 7.400 18.280
*N *2:81 *C 7.380 18.280
*N *2:82 *C 7.080 18.280
*N *2:83 *C 7.080 17.640
*N *2:84 *C 7.080 17.640
*N *2:85 *C 6.760 17.640
*N *2:86 *C 6.760 12.200
*N *2:87 *C 6.760 2.920
*N *2:88 *C 7.080 2.940
*N *2:89 *C 7.100 2.920
*N *2:90 *C 10.260 2.920
*N *2:91 *C 10.280 2.940
*N *2:92 *C 10.280 4.200
*N *2:93 *C 10.280 4.820
*N *2:94 *C 10.300 4.840
*N *2:95 *C 19.860 4.840
*N *2:96 *C 19.880 4.840
*N *2:97 *C 19.880 4.520
*N *2:98 *C 19.880 3.580
*N *2:99 *C 19.900 3.560
*N *2:100 *C 21.780 3.560
*N *2:101 *C 21.800 3.560
*N *2:102 *C 22.120 3.560

*CAP
0 *2 0.211509
1 *47:RSTB 0.001
2 *17:SETB 0.001
3 *48:RSTB 0.001
4 *20:SETB 0.001
5 *21:SETB 0.001
6 *23:SETB 0.001
7 *22:SETB 0.001
8 *19:SETB 0.001
9 *18:RSTB 0.001
10 *46:RSTB 0.001
11 *27:SETB 0.001
12 *49:RSTB 0.001
13 *41:RSTB 0.001
14 *40:RSTB 0.01985601
15 *42:RSTB 0.001
16 *25:SETB 0.001
17 *26:SETB 0.001
18 *28:SETB 0.001
19 *45:RSTB 0.001
20 *44:RSTB 0.001
21 *43:RSTB 0.02144112
22 *24:SETB 0.001
23 *2:23 0.2790684
24 *2:24 0.3254989
25 *2:25 0.2118727
26 *2:26 0.02144112
27 *2:27 0.7390387
28 *2:28 0.5978976
29 *2:29 0.02916124
30 *2:30 0.02916124
31 *2:31 0.09385906
32 *2:32 0.09385906
33 *2:33 0.02916124
34 *2:34 0.09331929
35 *2:35 0.09331929
36 *2:36 0.5048591
37 *2:37 0.02485511
38 *2:38 0.04198052
39 *2:39 0.06793682
40 *2:40 0.2652017
41 *2:41 0.2918819
42 *2:42 0.1593615
43 *2:43 0.2515145
44 *2:44 0.09287692
45 *2:45 0.1278502
46 *2:46 0.1278502
47 *2:47 0.1125432
48 *2:48 0.2160248
49 *2:49 0.01985601
50 *2:50 0.4426596
51 *2:51 0.5194681
52 *2:52 0.02603504
53 *2:53 0.02603504
54 *2:54 0.09569763
55 *2:55 0.09569763
56 *2:56 0.4571549
57 *2:57 0.6374449
58 *2:58 0.1172481
59 *2:59 0.1172481
60 *2:60 0.2735472
61 *2:61 0.02362027
62 *2:62 0.2723124
63 *2:63 0.2735983
64 *2:64 0.2735983
65 *2:65 0.107554
66 *2:66 0.107554
67 *2:67 0.2428039
68 *2:68 0.2428039
69 *2:69 0.801245
70 *2:70 0.05878365
71 *2:71 0.07590067
72 *2:72 0.04096907
73 *2:73 0.06568578
74 *2:74 0.1080685
75 *2:75 0.3655374
76 *2:76 0.7751515
77 *2:77 0.02651116
78 *2:78 0.02592676
79 *2:79 0.096813
80 *2:80 0.4554028
81 *2:81 0.0268422
82 *2:82 0.06185105
83 *2:83 0.03500884
84 *2:84 0.02526513
85 *2:85 0.3971033
86 *2:86 1.056306
87 *2:87 0.636005
88 *2:88 0.08622212
89 *2:89 0.1846435
90 *2:90 0.1846435
91 *2:91 0.07845505
92 *2:92 0.1197776
93 *2:93 0.04132259
94 *2:94 0.5071112
95 *2:95 0.5071112
96 *2:96 0.3223024
97 *2:97 0.08365962
98 *2:98 0.06260333
99 *2:99 0.1107152
100 *2:100 0.1107152
101 *2:101 0.02766538
102 *2:102 0.2391744

*RES
0 *2 *2:102 1.8
1 *2:48 *42:RSTB 0.9
2 *2:48 *2:47 0.70875
3 *2:49 *40:RSTB 0.03
4 *2:50 *2:49 0.9
5 *2:50 *2:48 0.72
6 *2:51 *41:RSTB 0.9
7 *2:51 *2:50 2.88
8 *2:56 *2:55 0.9
9 *2:55 *2:54 0.5175
10 *2:53 *49:RSTB 0.9
11 *2:53 *2:52 0.12375
12 *2:54 *2:53 0.9
13 *2:37 *28:SETB 0.9
14 *2:57 *2:56 4.30875
15 *2:57 *2:51 1.8
16 *2:58 *2:57 0.9
17 *2:60 *2:59 0.9
18 *2:60 *2:37 0.16875
19 *2:59 *2:58 1.0575
20 *2:61 *27:SETB 0.9
21 *2:40 *25:SETB 0.9
22 *2:38 *26:SETB 0.9
23 *2:47 *2:46 0.9
24 *2:46 *2:45 1.2375
25 *2:44 *2:43 0.7087501
26 *2:45 *2:44 0.9
27 *2:101 *47:RSTB 0.9
28 *2:101 *2:100 0.9
29 *2:30 *44:RSTB 0.9
30 *2:33 *45:RSTB 0.9
31 *2:33 *2:32 0.18
32 *2:34 *2:33 0.9
33 *2:36 *2:35 0.9
34 *2:36 *2:29 0.001
35 *2:35 *2:34 0.6975
36 *2:69 *46:RSTB 0.9
37 *2:69 *2:68 0.9
38 *2:69 *2:36 3.22875
39 *2:62 *2:61 0.16875
40 *2:62 *2:60 2.52
41 *2:63 *2:62 0.9
42 *2:64 *2:63 2.6775
43 *2:65 *2:64 0.9
44 *2:67 *2:66 0.9
45 *2:66 *2:65 1.0575
46 *2:68 *2:67 2.6775
47 *2:97 *17:SETB 0.9
48 *2:97 *2:96 0.18
49 *2:100 *2:99 1.0575
50 *2:98 *2:97 0.52875
51 *2:99 *2:98 0.9
52 *2:26 *43:RSTB 0.03
53 *2:27 *2:26 0.9
54 *2:27 *2:25 1.44
55 *2:23 *24:SETB 0.9
56 *2:96 *2:95 0.9
57 *2:96 *2:69 2.52
58 *2:95 *2:94 5.377501
59 *2:93 *2:92 0.34875
60 *2:94 *2:93 0.9
61 *2:92 *48:RSTB 0.9
62 *2:92 *2:91 0.70875
63 *2:77 *21:SETB 0.9
64 *2:78 *20:SETB 0.9
65 *2:73 *23:SETB 0.9
66 *2:72 *22:SETB 0.9
67 *2:70 *18:RSTB 0.9
68 *2:91 *2:90 0.9
69 *2:90 *2:89 1.7775
70 *2:88 *2:87 0.18
71 *2:88 *2:70 0.3375
72 *2:89 *2:88 0.9
73 *2:80 *2:79 0.36
74 *2:80 *2:76 3.42
75 *2:81 *2:80 0.9
76 *2:84 *2:83 0.9
77 *2:83 *2:82 0.36
78 *2:71 *19:SETB 0.9
79 *2:87 *2:86 5.220001
80 *2:86 *2:85 3.06
81 *2:86 *2:71 0.72
82 *2:85 *2:84 0.18
83 *2:79 *2:78 0.16875
84 *2:79 *2:77 0.16875
85 *2:76 *2:75 2.7
86 *2:76 *2:72 0.36
87 *2:75 *2:74 0.36
88 *2:74 *2:73 0.5287499
89 *2:24 *2:23 2.669062
90 *2:25 *2:24 0.36
91 *2:28 *2:27 3.96
92 *2:29 *2:28 0.18
93 *2:32 *2:31 0.36
94 *2:31 *2:30 0.18
95 *2:102 *2:101 0.18
96 *2:43 *2:42 1.08
97 *2:43 *2:39 0.18
98 *2:42 *2:41 0.18
99 *2:39 *2:38 0.16875
100 *2:41 *2:40 2.32875
101 *2:82 *2:81 0.16875

*END

*D_NET *3 2.054274 //LENGTH 15.800 LUMPCC 0 DR

*CONN
*P *3 I *L 0 *C 14.120 0.360
*I *50:INP I *L 1.705647 *C 18.280 10.920
*N *3:2 *C 18.280 10.900
*N *3:3 *C 18.280 10.620
*N *3:4 *C 18.260 10.600
*N *3:5 *C 15.100 10.600
*N *3:6 *C 15.080 10.580
*N *3:7 *C 15.080 1.020
*N *3:8 *C 15.060 1.000
*N *3:9 *C 14.140 1.000
*N *3:10 *C 14.120 0.980

*CAP
0 *3 0.06606971
1 *50:INP 0.001
2 *3:2 0.02942456
3 *3:3 0.02942456
4 *3:4 0.1550265
5 *3:5 0.1550265
6 *3:6 0.7125674
7 *3:7 0.7125674
8 *3:8 0.06354858
9 *3:9 0.06354858
10 *3:10 0.06606971

*RES
0 *3 *3:10 0.34875
1 *3:2 *50:INP 0.9
2 *3:3 *3:2 0.1575
3 *3:4 *3:3 0.9
4 *3:6 *3:5 0.9
5 *3:5 *3:4 1.7775
6 *3:7 *3:6 5.3775
7 *3:8 *3:7 0.9
8 *3:10 *3:9 0.9
9 *3:9 *3:8 0.5175

*END

*D_NET *4 3.839905 //LENGTH 37.480 LUMPCC 0 DR

*CONN
*I *49:QN O *L 0 *C 33.640 6.120
*I *18:SETB I *L 2.684768 *C 8.040 1.320
*P *4 O *L 0 *C 5.800 0.360
*N *4:3 *C 5.800 0.980
*N *4:4 *C 5.820 1.000
*N *4:5 *C 7.720 1.000
*N *4:6 *C 7.720 1.640
*N *4:7 *C 8.040 1.340
*N *4:8 *C 8.040 1.620
*N *4:9 *C 8.040 1.640
*N *4:10 *C 34.580 1.640
*N *4:11 *C 34.600 1.660
*N *4:12 *C 34.600 4.820
*N *4:13 *C 34.580 4.840
*N *4:14 *C 33.660 4.840
*N *4:15 *C 33.640 4.860
*N *4:16 *C 33.640 6.100

*CAP
0 *49:QN 0.001
1 *18:SETB 0.001
2 *4 0.05128905
3 *4:3 0.05128905
4 *4:4 0.1010114
5 *4:5 0.1353517
6 *4:6 0.05700003
7 *4:7 0.03193016
8 *4:8 0.03193016
9 *4:9 1.376673
10 *4:10 1.354014
11 *4:11 0.173301
12 *4:12 0.173301
13 *4:13 0.0592337
14 *4:14 0.0592337
15 *4:15 0.09117361
16 *4:16 0.09117361

*RES
0 *49:QN *4:16 0.9
1 *4:11 *4:10 0.9
2 *4:10 *4:9 14.92875
3 *4:12 *4:11 1.7775
4 *4:13 *4:12 0.9
5 *4:15 *4:14 0.9
6 *4:14 *4:13 0.5175
7 *4:16 *4:15 0.6974999
8 *4:8 *4:7 0.1575
9 *4:9 *4:8 0.9
10 *4:9 *4:6 0.18
11 *4:7 *18:SETB 0.9
12 *4:3 *4 0.34875
13 *4:4 *4:3 0.9
14 *4:5 *4:4 1.06875
15 *4:6 *4:5 0.36

*END

*D_NET *5 1.317699 //LENGTH 9.155 LUMPCC 0 DR

*CONN
*I *29:ZN O *L 0 *C 32.965 28.200
*P *5 O *L 0 *C 35.560 22.120
*N *5:2 *C 34.620 22.120
*N *5:3 *C 34.600 22.140
*N *5:4 *C 34.600 28.180
*N *5:5 *C 34.575 28.200

*CAP
0 *29:ZN 0.08626546
1 *5 0.06060665
2 *5:2 0.06060665
3 *5:3 0.5119776
4 *5:4 0.5119776
5 *5:5 0.08626546

*RES
0 *29:ZN *5:5 1.035
1 *5:5 *5:4 0.9
2 *5:4 *5:3 3.3975
3 *5:3 *5:2 0.9
4 *5:2 *5 0.5287499

*END

*D_NET *6 2.052639 //LENGTH 20.195 LUMPCC 0 DR

*CONN
*I *30:ZN O *L 0 *C 32.965 16.680
*P *6 O *L 0 *C 35.560 13.160
*I *28:CLK I *L 1.286833 *C 23.880 11.240
*N *6:3 *C 23.880 11.240
*N *6:4 *C 24.040 11.240
*N *6:5 *C 24.060 11.240
*N *6:6 *C 35.220 11.240
*N *6:7 *C 35.240 11.260
*N *6:8 *C 35.260 13.160
*N *6:9 *C 35.240 13.160
*N *6:10 *C 35.240 16.660
*N *6:11 *C 35.215 16.680

*CAP
0 *30:ZN 0.1193396
1 *6 0.02951295
2 *28:CLK 0.001
3 *6:3 0.009674491
4 *6:4 0.009674491
5 *6:5 0.5722333
6 *6:6 0.5722333
7 *6:7 0.1217349
8 *6:8 0.02951295
9 *6:9 0.2950592
10 *6:10 0.1733243
11 *6:11 0.1193396

*RES
0 *30:ZN *6:11 1.446429
1 *6:9 *6:8 0.9
2 *6:9 *6:7 1.06875
3 *6:8 *6 0.16875
4 *6:11 *6:10 0.9
5 *6:10 *6:9 1.96875
6 *6:7 *6:6 0.9
7 *6:6 *6:5 6.277501
8 *6:4 *6:3 0.06
9 *6:5 *6:4 0.9
10 *6:3 *28:CLK 0.9

*END

*D_NET *7 4.947904 //LENGTH 33.560 LUMPCC 0 DR

*CONN
*I *31:ZN O *L 0 *C 19.880 20.520
*I *27:CLK I *L 1.286833 *C 23.835 8.040
*P *7 O *L 0 *C 35.560 4.200
*N *7:3 *C 35.260 4.200
*N *7:4 *C 35.240 4.220
*N *7:5 *C 35.240 8.020
*N *7:6 *C 35.220 8.040
*N *7:7 *C 23.835 7.800
*N *7:8 *C 23.835 8.020
*N *7:9 *C 23.835 8.040
*N *7:10 *C 20.220 8.040
*N *7:11 *C 20.200 8.060
*N *7:12 *C 20.200 15.720
*N *7:13 *C 19.880 15.720
*N *7:14 *C 19.880 20.500

*CAP
0 *31:ZN 0.001
1 *27:CLK 0.001
2 *7 0.04541766
3 *7:3 0.04541766
4 *7:4 0.2218091
5 *7:5 0.2218091
6 *7:6 0.5881358
7 *7:7 0.03248047
8 *7:8 0.03248047
9 *7:9 0.7900665
10 *7:10 0.2019307
11 *7:11 0.8449945
12 *7:12 0.8741558
13 *7:13 0.5381835
14 *7:14 0.5090222

*RES
0 *31:ZN *7:14 0.9
1 *7:5 *7:4 2.1375
2 *7:6 *7:5 0.9
3 *7:4 *7:3 0.9
4 *7:3 *7 0.16875
5 *7:8 *27:CLK 0.9
6 *7:8 *7:7 0.12375
7 *7:9 *7:8 0.9
8 *7:9 *7:6 6.404063
9 *7:11 *7:10 0.9
10 *7:10 *7:9 2.033437
11 *7:14 *7:13 2.68875
12 *7:13 *7:12 0.18
13 *7:12 *7:11 4.30875

*END

*D_NET *8 1.578026 //LENGTH 15.845 LUMPCC 0 DR

*CONN
*I *32:ZN O *L 0 *C 27.560 28.200
*I *26:CLK I *L 1.286833 *C 23.875 25.320
*P *8 O *L 0 *C 30.440 33.320
*N *8:3 *C 30.440 27.900
*N *8:4 *C 30.420 27.880
*N *8:5 *C 23.875 25.340
*N *8:6 *C 24.040 25.350
*N *8:7 *C 24.040 27.860
*N *8:8 *C 24.060 27.880
*N *8:9 *C 27.560 27.880
*N *8:10 *C 27.560 27.900
*N *8:11 *C 27.560 28.180

*CAP
0 *32:ZN 0.001
1 *26:CLK 0.001
2 *8 0.2909125
3 *8:3 0.2909125
4 *8:4 0.1403293
5 *8:5 0.01808221
6 *8:6 0.1649558
7 *8:7 0.1468736
8 *8:8 0.1608808
9 *8:9 0.3012101
10 *8:10 0.03093468
11 *8:11 0.03093468

*RES
0 *32:ZN *8:11 0.9
1 *8:3 *8 3.04875
2 *8:4 *8:3 0.9
3 *8:10 *8:9 0.9
4 *8:9 *8:8 1.96875
5 *8:9 *8:4 1.60875
6 *8:11 *8:10 0.1575
7 *8:7 *8:6 1.411875
8 *8:8 *8:7 0.9
9 *8:5 *26:CLK 0.9
10 *8:6 *8:5 0.07425001

*END

*D_NET *9 1.280269 //LENGTH 10.890 LUMPCC 0 DR

*CONN
*I *33:ZN O *L 0 *C 18.245 31.400
*P *9 O *L 0 *C 22.120 33.320
*I *25:CLK I *L 1.286833 *C 23.835 31.080
*N *9:3 *C 23.835 31.080
*N *9:4 *C 22.440 31.080
*N *9:5 *C 22.120 33.000
*N *9:6 *C 22.440 33.000
*N *9:7 *C 22.440 32.980
*N *9:8 *C 22.415 33.000
*N *9:9 *C 18.945 33.000
*N *9:10 *C 18.920 32.980
*N *9:11 *C 18.920 31.420
*N *9:12 *C 18.895 31.400

*CAP
0 *33:ZN 0.04015569
1 *9 0.02970948
2 *25:CLK 0.001
3 *9:3 0.08163974
4 *9:4 0.1970429
5 *9:5 0.04578979
6 *9:6 0.01933327
7 *9:7 0.1186561
8 *9:8 0.2776164
9 *9:9 0.2776164
10 *9:10 0.07577654
11 *9:11 0.07577654
12 *9:12 0.04015569

*RES
0 *33:ZN *9:12 0.4178571
1 *9:3 *25:CLK 0.9
2 *9:8 *9:7 0.9
3 *9:7 *9:6 0.001
4 *9:7 *9:4 1.06875
5 *9:9 *9:8 2.230714
6 *9:10 *9:9 0.9
7 *9:12 *9:11 0.9
8 *9:11 *9:10 0.8775
9 *9:5 *9 0.18
10 *9:6 *9:5 0.18
11 *9:4 *9:3 0.7846875

*END

*D_NET *10 1.470414 //LENGTH 13.560 LUMPCC 0 DR

*CONN
*I *34:ZN O *L 0 *C 8.040 28.200
*I *24:CLK I *L 1.286833 *C 13.335 28.520
*P *10 O *L 0 *C 14.120 33.280
*N *10:3 *C 14.760 33.240
*N *10:4 *C 14.760 28.540
*N *10:5 *C 14.740 28.520
*N *10:6 *C 13.335 28.280
*N *10:7 *C 13.335 28.500
*N *10:8 *C 13.335 28.520
*N *10:9 *C 8.060 28.520
*N *10:10 *C 8.040 28.500
*N *10:11 *C 8.040 28.220

*CAP
0 *34:ZN 0.001
1 *24:CLK 0.001
2 *10 0.0387425
3 *10:3 0.2853841
4 *10:4 0.2466417
5 *10:5 0.08347265
6 *10:6 0.03063035
7 *10:7 0.03063035
8 *10:8 0.386482
9 *10:9 0.3030094
10 *10:10 0.03171038
11 *10:11 0.03171038

*RES
0 *34:ZN *10:11 0.9
1 *10:4 *10:3 2.64375
2 *10:5 *10:4 0.9
3 *10:7 *24:CLK 0.9
4 *10:7 *10:6 0.12375
5 *10:8 *10:7 0.9
6 *10:8 *10:5 0.7903125
7 *10:10 *10:9 0.9
8 *10:9 *10:8 2.967187
9 *10:11 *10:10 0.1575
10 *10:3 *10 0.36

*END

*D_NET *11 1.024083 //LENGTH 9.185 LUMPCC 0 DR

*CONN
*I *35:ZN O *L 0 *C 5.780 28.495
*I *23:CLK I *L 1.286833 *C 2.420 31.080
*P *11 O *L 0 *C 5.800 33.320
*N *11:3 *C 5.800 33.000
*N *11:4 *C 5.480 33.000
*N *11:5 *C 2.420 31.080
*N *11:6 *C 5.480 31.080
*N *11:7 *C 5.480 28.540
*N *11:8 *C 5.522 28.520

*CAP
0 *35:ZN 0.04085148
1 *23:CLK 0.001
2 *11 0.03075014
3 *11:3 0.06094911
4 *11:4 0.1338776
5 *11:5 0.1617663
6 *11:6 0.4097409
7 *11:7 0.1442961
8 *11:8 0.04085148

*RES
0 *35:ZN *11:8 0.06777778
1 *11:8 *11:7 0.9
2 *11:7 *11:6 1.42875
3 *11:5 *23:CLK 0.9
4 *11:6 *11:5 1.72125
5 *11:6 *11:4 1.08
6 *11:4 *11:3 0.18
7 *11:3 *11 0.18

*END

*D_NET *12 0.9089044 //LENGTH 9.200 LUMPCC 0 DR

*CONN
*I *36:ZN O *L 0 *C 5.480 22.440
*I *22:CLK I *L 1.286833 *C 2.410 25.320
*P *12 O *L 0 *C 0.360 22.120
*N *12:3 *C 2.345 25.300
*N *12:4 *C 2.280 22.140
*N *12:5 *C 2.280 22.120
*N *12:6 *C 5.460 22.120
*N *12:7 *C 5.480 22.140
*N *12:8 *C 5.480 22.420

*CAP
0 *36:ZN 0.001
1 *22:CLK 0.001
2 *12 0.08896527
3 *12:3 0.1869089
4 *12:4 0.1869089
5 *12:5 0.2355956
6 *12:6 0.1466304
7 *12:7 0.03094765
8 *12:8 0.03094765

*RES
0 *36:ZN *12:8 0.9
1 *12:7 *12:6 0.9
2 *12:6 *12:5 1.78875
3 *12:8 *12:7 0.1575
4 *12:4 *12:3 1.7775
5 *12:5 *12:4 0.9
6 *12:5 *12 1.08
7 *12:3 *22:CLK 0.9

*END

*D_NET *13 1.401084 //LENGTH 13.680 LUMPCC 0 DR

*CONN
*I *37:ZN O *L 0 *C 5.480 14.120
*I *21:CLK I *L 1.286833 *C 2.415 19.560
*P *13 O *L 0 *C 0.360 13.160
*N *13:3 *C 2.280 13.160
*N *13:4 *C 2.280 13.800
*N *13:5 *C 2.348 19.540
*N *13:6 *C 2.280 17.640
*N *13:7 *C 2.920 17.640
*N *13:8 *C 2.920 13.820
*N *13:9 *C 2.920 13.800
*N *13:10 *C 5.460 13.800
*N *13:11 *C 5.480 13.820
*N *13:12 *C 5.480 14.100

*CAP
0 *37:ZN 0.001
1 *21:CLK 0.001
2 *13 0.1166578
3 *13:3 0.1499204
4 *13:4 0.06654784
5 *13:5 0.127265
6 *13:6 0.1686539
7 *13:7 0.2391207
8 *13:8 0.1977318
9 *13:9 0.1539661
10 *13:10 0.1206809
11 *13:11 0.02926994
12 *13:12 0.02926994

*RES
0 *37:ZN *13:12 0.9
1 *13:11 *13:10 0.9
2 *13:10 *13:9 1.42875
3 *13:12 *13:11 0.1575
4 *13:8 *13:7 2.14875
5 *13:9 *13:8 0.9
6 *13:9 *13:4 0.36
7 *13:5 *21:CLK 0.9
8 *13:6 *13:5 1.06875
9 *13:7 *13:6 0.36
10 *13:3 *13 1.08
11 *13:4 *13:3 0.36

*END

*D_NET *14 2.962154 //LENGTH 24.495 LUMPCC 0 DR

*CONN
*I *38:ZN O *L 0 *C 7.420 7.785
*I *20:CLK I *L 1.286833 *C 2.415 17.000
*P *14 O *L 0 *C 0.360 4.200
*N *14:3 *C 1.960 4.200
*N *14:4 *C 2.415 17.000
*N *14:5 *C 1.960 17.000
*N *14:6 *C 1.960 4.860
*N *14:7 *C 1.960 4.840
*N *14:8 *C 7.380 4.840
*N *14:9 *C 7.400 4.860
*N *14:10 *C 7.400 7.700
*N *14:11 *C 7.400 7.720

*CAP
0 *38:ZN 0.01823187
1 *20:CLK 0.001
2 *14 0.09023662
3 *14:3 0.1250899
4 *14:4 0.02929174
5 *14:5 0.8979703
6 *14:6 0.8686786
7 *14:7 0.2914116
8 *14:8 0.2565584
9 *14:9 0.1827264
10 *14:10 0.1827264
11 *14:11 0.01823187

*RES
0 *38:ZN *14:11 0.0675
1 *14:9 *14:8 0.9
2 *14:8 *14:7 3.04875
3 *14:11 *14:10 0.9
4 *14:10 *14:9 1.5975
5 *14:6 *14:5 6.82875
6 *14:7 *14:6 0.9
7 *14:7 *14:3 0.36
8 *14:4 *20:CLK 0.9
9 *14:5 *14:4 0.2559375
10 *14:3 *14 0.9000001

*END

*D_NET *205 0.4081656 //LENGTH 3.415 LUMPCC 0 DR

*CONN
*I *39:ZN O *L 0 *C 2.600 8.360
*I *19:CLK I *L 1.286833 *C 2.425 11.240
*N *205:2 *C 2.425 11.220
*N *205:3 *C 2.600 11.210
*N *205:4 *C 2.600 8.380

*CAP
0 *39:ZN 0.001
1 *19:CLK 0.001
2 *205:2 0.01751241
3 *205:3 0.2030828
4 *205:4 0.1855704

*RES
0 *39:ZN *205:4 0.9
1 *205:2 *19:CLK 0.9
2 *205:4 *205:3 1.591875
3 *205:3 *205:2 0.07875

*END

*D_NET *206 1.715037 //LENGTH 14.760 LUMPCC 0 DR

*CONN
*I *48:Q O *L 0 *C 12.055 6.120
*I *49:D I *L 1.612113 *C 24.680 4.520
*N *206:2 *C 24.680 4.540
*N *206:3 *C 24.680 5.460
*N *206:4 *C 24.660 5.480
*N *206:5 *C 12.220 5.480
*N *206:6 *C 12.200 5.500
*N *206:7 *C 12.128 6.100

*CAP
0 *48:Q 0.001